Version 4
SHEET 1 880 680
WIRE -96 64 -96 48
WIRE 16 64 16 48
WIRE 336 80 272 80
WIRE 448 80 400 80
WIRE -96 96 -96 64
WIRE 16 96 16 64
WIRE 272 176 272 80
WIRE 320 176 272 176
WIRE 448 176 448 80
WIRE 448 176 400 176
WIRE -96 224 -96 176
WIRE 16 224 16 176
WIRE 272 272 272 176
WIRE 272 272 144 272
WIRE 336 272 272 272
WIRE 448 288 448 176
WIRE 448 288 400 288
WIRE 576 288 448 288
WIRE 336 304 272 304
WIRE 144 336 144 272
WIRE 144 448 144 400
WIRE 272 448 272 304
FLAG 144 448 0
FLAG 272 448 0
FLAG -96 224 0
FLAG 16 224 0
FLAG -96 64 V+
FLAG 16 64 V-
FLAG 368 256 V+
FLAG 368 320 V-
FLAG 576 288 Vout
SYMBOL voltage -96 80 R0
SYMATTR InstName V+
SYMATTR Value +15V
SYMBOL voltage 16 80 R0
SYMATTR InstName V-
SYMATTR Value -15V
SYMBOL res 416 160 R90
WINDOW 0 0 56 VBottom 2
WINDOW 3 32 56 VTop 2
SYMATTR InstName Rf
SYMATTR Value 10m
SYMBOL cap 400 64 R90
WINDOW 0 0 32 VBottom 2
WINDOW 3 32 32 VTop 2
SYMATTR InstName Cf
SYMATTR Value 1p
SYMBOL psd 128 336 R0
SYMATTR InstName X1
SYMBOL Opamps/ADTL082 368 224 R0
SYMATTR InstName U1
TEXT -64 376 Left 2 !.tran 10
